FoamFile
{
	version             2.0;
	format              binary;
	arch                "LSB;label=32;scalar=64";
	class               dictionary;
	location            "system";
	object              changeDictionaryDict;
}


