FoamFile
{
	version	2.0;
	class	dictionary;
	format	ascii;
	location	"system";
	object	controlDict;
}
startFrom	latestTime;
startTime	0;
stopAt	endTime;
endTime	1.0;
deltaT	1.0;
writeControl	timeStep;
writeInterval	1.0;
purgeWrite	0;
timeFormat	general;
timePrecision	6;
writeFormat	binary;
writePrecision	7;
writeCompression	uncompressed;
runTimeModifiable	true;
libs	( "libturbulenceModels.dll" "libfvOptions.dll" "libturbulenceModelSchemes.dll" );
