FoamFile
{
	version	2.0;
	class	dictionary;
	format	ascii;
	location	"system";
	object	fvSolution;
}
solvers
{
	Phi
	{
		solver	GAMG;
		smoother	GaussSeidel;
		nPreSweeps	0;
		nPostSweeps	1;
		nFinestSweeps	1;
		nCellsInCoarsestLevel	10;
		mergeLevels	2;
		agglomerator	faceAreaPair;
		cacheAgglomeration	true;
		tolerance	1.0E-8;
		relTol	0.01;
		maxIter	100;
	}
}
potentialFlow
{
}
