THERMO ALL
   200.000  1000.000  6000.000
END
