FoamFile
{
	version	2.0;
	class	dictionary;
	format	ascii;
	location	"system";
	object	fvSchemes;
}
ddtSchemes
{
	default	Euler;
}
gradSchemes
{
	default	Gauss linear;
}
divSchemes
{
	default	bounded Gauss upwind;
}
laplacianSchemes
{
	default	Gauss linear corrected;
}
interpolationSchemes
{
	default	linear;
}
snGradSchemes
{
	default	corrected;
}
fluxRequired
{
	default	no;
}
wallDist
{
	method	meshWave;
	nRequired	true;
}
